# created with PyMOL 2.3.0
@<TRIPOS>MOLECULE
a_TEMPO_a_water_a_glycerol
47 47 3                 
SMALL
USER_CHARGES
@<TRIPOS>ATOM
1	  C1	37.700	36.150	37.340	C.3	1	TEM1	0.000	
2	  C3	38.190	36.290	38.760	C.3	1	TEM1	0.000	
3	  H6	38.970	35.510	38.800	 H	1	TEM1	0.000	
4	  H4	37.380	36.130	39.500	 H	1	TEM1	0.000	
5	  H5	38.800	37.180	39.010	 H	1	TEM1	0.000	
6	  C2	37.560	34.690	37.010	C.3	1	TEM1	0.000	
7	  H2	37.110	34.140	37.860	 H	1	TEM1	0.000	
8	  H3	38.560	34.210	37.060	 H	1	TEM1	0.000	
9	  H1	37.060	34.520	36.030	 H	1	TEM1	0.000	
10	  C4	38.750	36.510	36.330	C.3	1	TEM1	0.000	
11	  H8	39.670	35.930	36.540	 H	1	TEM1	0.000	
12	  H7	38.270	36.150	35.400	 H	1	TEM1	0.000	
13	  C5	39.060	37.980	36.160	C.3	1	TEM1	0.000	
14	 H10	39.870	38.140	35.410	 H	1	TEM1	0.000	
15	  H9	39.480	38.270	37.150	 H	1	TEM1	0.000	
16	  C6	37.750	38.770	35.970	C.3	1	TEM1	0.000	
17	 H11	37.560	38.530	34.900	 H	1	TEM1	0.000	
18	 H12	37.810	39.880	36.010	 H	1	TEM1	0.000	
19	  C7	36.610	38.380	36.850	C.3	1	TEM1	0.000	
20	  C9	36.650	39.170	38.230	C.3	1	TEM1	0.000	
21	 H18	37.570	38.870	38.780	 H	1	TEM1	0.000	
22	 H16	35.840	38.870	38.940	 H	1	TEM1	0.000	
23	 H17	36.850	40.260	38.120	 H	1	TEM1	0.000	
24	  C8	35.340	38.820	36.150	C.3	1	TEM1	0.000	
25	 H14	35.260	38.370	35.140	 H	1	TEM1	0.000	
26	 H13	35.270	39.920	36.060	 H	1	TEM1	0.000	
27	 H15	34.530	38.470	36.820	 H	1	TEM1	0.000	
28	   N	36.440	36.900	37.100	N.3	1	TEM1	0.000	
29	   O	35.290	36.430	37.810	O.3	1	TEM1	0.000	
30	  C1	13.220	37.530	67.660	C.3	2	MGLY2	0.000	
31	 H11	12.430	38.080	68.210	 H	2	MGLY2	0.000	
32	 H12	13.540	36.670	68.280	 H	2	MGLY2	0.000	
33	  O1	14.360	38.410	67.390	O.3	2	MGLY2	0.000	
34	 HO1	14.220	39.320	67.660	 H	2	MGLY2	0.000	
35	  C2	12.620	36.910	66.370	C.3	2	MGLY2	0.000	
36	  H2	11.860	36.160	66.670	 H	2	MGLY2	0.000	
37	  O2	13.640	36.150	65.660	O.3	2	MGLY2	0.000	
38	 HO2	14.480	36.530	65.930	 H	2	MGLY2	0.000	
39	  C3	11.850	37.790	65.380	C.3	2	MGLY2	0.000	
40	 H31	11.270	38.600	65.880	 H	2	MGLY2	0.000	
41	 H32	12.550	38.210	64.620	 H	2	MGLY2	0.000	
42	  O3	10.860	37.110	64.570	O.3	2	MGLY2	0.000	
43	 HO3	11.390	36.670	63.900	 H	2	MGLY2	0.000	
44	  OW	48.980	18.530	33.670	O.3	3	SOL1502	0.000	WATER
45	 HW1	48.650	17.630	33.560	 H	3	SOL1502	0.000	WATER
46	 HW2	49.400	18.730	32.840	 H	3	SOL1502	0.000	WATER
47	  MW	48.990	18.440	33.550	Du	3	SOL1502	0.000	WATER
@<TRIPOS>BOND
1 1 2 1
2 1 6 1
3 1 10 1
4 1 28 1
5 2 3 1
6 2 4 1
7 2 5 1
8 6 7 1
9 6 8 1
10 6 9 1
11 10 11 1
12 10 12 1
13 10 13 1
14 13 14 1
15 13 15 1
16 13 16 1
17 16 17 1
18 16 18 1
19 16 19 1
20 19 20 1
21 19 24 1
22 19 28 1
23 20 21 1
24 20 22 1
25 20 23 1
26 24 25 1
27 24 26 1
28 24 27 1
29 28 29 1
30 30 31 1
31 30 32 1
32 30 33 1
33 30 35 1
34 33 34 1
35 35 36 1
36 35 37 1
37 35 39 1
38 37 38 1
39 39 40 1
40 39 41 1
41 39 42 1
42 42 43 1
43 44 45 1
44 44 46 1
45 44 47 1
46 45 47 1
47 46 47 1
@<TRIPOS>SUBSTRUCTURE
1	TEM1	1	GROUP	1 ****	TEM
2	MGLY2	30	GROUP	1 ****	MGLY
3	SOL1502	44	GROUP	1 ****	SOL
